<routes>
  <!-- define vehicle type 'car' -->
  <vType id="car" accel="1.0" decel="4.5" sigma="0.5" length="5.0" minGap="2.5" maxSpeed="25.0"/>

  <!-- define a route along edge AB -->
  <route id="r0" edges="AB"/>
</routes>
